<?xml version="1.0" encoding="UTF-8"?>

<!-- generated on 2022-12-19 12:53:34.410911 by osmWebWizard.py v1_15_0+0002-e6790248698
<configuration>
    <allow-fringe.min-length value="1000.0"/>
    <end value="3600"/>
    <fringe-factor value="5"/>
    <fringe-start-attributes value="departSpeed=&quot;max&quot;"/>
    <insertion-density value="12.0"/>
    <lanes value="True"/>
    <min-distance.fringe value="10.0"/>
    <min-distance value="300.0"/>
    <net-file value="C:\Users\Kranthi\Sumo\2022-12-19-12-53-08\osm.net.xml.gz"/>
    <remove-loops value="True"/>
    <route-file value="C:\Users\Kranthi\Sumo\2022-12-19-12-53-08\osm.passenger.rou.xml"/>
    <trip-attributes value="departLane=&quot;best&quot;"/>
    <output-trip-file value="C:\Users\Kranthi\Sumo\2022-12-19-12-53-08\osm.passenger.trips.xml"/>
    <prefix value="veh"/>
    <validate value="True"/>
    <vehicle-class value="passenger"/>
</configuration>
-->

<!-- generated on 2022-12-19 12:53:34 by Eclipse SUMO duarouter Version 1.15.0
<configuration xmlns:xsi="http://www.w3.org/2001/XMLSchema-instance" xsi:noNamespaceSchemaLocation="http://sumo.dlr.de/xsd/duarouterConfiguration.xsd">

    <input>
        <net-file value="C:\Users\Kranthi\Sumo\2022-12-19-12-53-08\osm.net.xml.gz"/>
        <route-files value="C:\Users\Kranthi\Sumo\2022-12-19-12-53-08\osm.passenger.trips.xml"/>
    </input>

    <output>
        <output-file value="C:\Users\Kranthi\Sumo\2022-12-19-12-53-08\osm.passenger.trips.xml.tmp"/>
        <alternatives-output value="NUL"/>
        <write-trips value="true"/>
    </output>

    <processing>
        <remove-loops value="true"/>
    </processing>

    <time>
        <begin value="0"/>
        <end value="3600"/>
    </time>

    <report>
        <no-warnings value="true"/>
        <ignore-errors value="true"/>
        <no-step-log value="true"/>
    </report>

</configuration>
-->

<routes xmlns:xsi="http://www.w3.org/2001/XMLSchema-instance" xsi:noNamespaceSchemaLocation="http://sumo.dlr.de/xsd/routes_file.xsd">
    <vType id="veh_passenger" vClass="passenger"/>
    <trip id="veh1" type="veh_passenger" depart="4.38" departLane="best" from="-588084859#0" to="-366099488#6"/>
    <trip id="veh2" type="veh_passenger" depart="8.76" departLane="best" from="312653138#0" to="-283872957#0"/>
    <trip id="veh3" type="veh_passenger" depart="13.14" departLane="best" from="-6837997#6" to="-22966590#5"/>
    <trip id="veh5" type="veh_passenger" depart="21.91" departLane="best" from="-366099488#12" to="-191547350#0"/>
    <trip id="veh7" type="veh_passenger" depart="30.67" departLane="best" from="26549167#2" to="22966548#2"/>
    <trip id="veh8" type="veh_passenger" depart="35.05" departLane="best" from="-366099488#16" to="-23047248#0"/>
    <trip id="veh9" type="veh_passenger" depart="39.43" departLane="best" from="366099524#4" to="29095677#10"/>
    <trip id="veh10" type="veh_passenger" depart="43.81" departLane="best" from="-825861582#1" to="-27867821#3"/>
    <trip id="veh11" type="veh_passenger" depart="48.19" departLane="best" from="8094030#9" to="-8067215#8"/>
    <trip id="veh13" type="veh_passenger" depart="56.95" departLane="best" from="22947199#0" to="846673351#0"/>
    <trip id="veh14" type="veh_passenger" depart="61.33" departLane="best" from="-312653142#1" to="-22966590#7"/>
    <trip id="veh15" type="veh_passenger" depart="65.72" departLane="best" from="-43563428" to="24881435#0"/>
    <trip id="veh16" type="veh_passenger" depart="70.10" departLane="best" from="564341880#0" to="-23009697#3"/>
    <trip id="veh17" type="veh_passenger" depart="74.48" departLane="best" from="29095677#10" to="-154147669#5"/>
    <trip id="veh18" type="veh_passenger" depart="78.86" departLane="best" from="366099524#0" to="6837997#1"/>
    <trip id="veh19" type="veh_passenger" depart="83.24" departLane="best" from="22966541#0" to="-366099524#5"/>
    <trip id="veh22" type="veh_passenger" depart="96.38" departLane="best" from="90673928#1" to="-31714132#0"/>
    <trip id="veh23" type="veh_passenger" depart="100.76" departLane="best" from="513728058#3" to="8067215#6"/>
    <trip id="veh24" type="veh_passenger" depart="105.15" departLane="best" from="26496778#3" to="24610455#0"/>
    <trip id="veh25" type="veh_passenger" depart="109.53" departLane="best" from="283872959#1" to="312653137#0"/>
    <trip id="veh26" type="veh_passenger" depart="113.91" departLane="best" from="-281319871#1" to="10063177#2"/>
    <trip id="veh27" type="veh_passenger" depart="118.29" departLane="best" from="913787264#4" to="26320074#4"/>
    <trip id="veh28" type="veh_passenger" depart="122.67" departLane="best" from="22966590#5" to="283872970#0"/>
    <trip id="veh29" type="veh_passenger" depart="127.05" departLane="best" from="366099524#1" to="-144905128"/>
    <trip id="veh30" type="veh_passenger" depart="131.43" departLane="best" from="-7829672#7" to="-513728058#6"/>
    <trip id="veh31" type="veh_passenger" depart="135.81" departLane="best" from="31714133#0" to="8094023#1"/>
    <trip id="veh32" type="veh_passenger" depart="140.19" departLane="best" from="623057271#0" to="7829672#6"/>
    <trip id="veh33" type="veh_passenger" depart="144.58" departLane="best" from="27867820#1" to="10524865#0"/>
    <trip id="veh34" type="veh_passenger" depart="148.96" departLane="best" from="-7829672#2" to="150824164#0"/>
    <trip id="veh35" type="veh_passenger" depart="153.34" departLane="best" from="513728058#17" to="38098253#0"/>
    <trip id="veh36" type="veh_passenger" depart="157.72" departLane="best" from="22966621#0" to="513728058#14"/>
    <trip id="veh37" type="veh_passenger" depart="162.10" departLane="best" from="23009837#1" to="7822522#1"/>
    <trip id="veh38" type="veh_passenger" depart="166.48" departLane="best" from="-11131146#3" to="366099488#13"/>
    <trip id="veh39" type="veh_passenger" depart="170.86" departLane="best" from="99289590" to="192637343#1"/>
    <trip id="veh40" type="veh_passenger" depart="175.24" departLane="best" from="22966621#0" to="15711655#1"/>
    <trip id="veh41" type="veh_passenger" depart="179.62" departLane="best" from="-22976120#4" to="24881435#6"/>
    <trip id="veh43" type="veh_passenger" depart="188.39" departLane="best" from="-22947144#0" to="10063177#6"/>
    <trip id="veh44" type="veh_passenger" depart="192.77" departLane="best" from="9385235#1" to="22947171#3"/>
    <trip id="veh45" type="veh_passenger" depart="197.15" departLane="best" from="-846673349#1" to="602807574#3"/>
    <trip id="veh46" type="veh_passenger" depart="201.53" departLane="best" from="-10063250#6" to="312517301#1"/>
    <trip id="veh47" type="veh_passenger" depart="205.91" departLane="best" from="-283872957#0" to="22960517#2"/>
    <trip id="veh48" type="veh_passenger" depart="210.29" departLane="best" from="513728058#3" to="26496778#2"/>
    <trip id="veh49" type="veh_passenger" depart="214.67" departLane="best" from="23009697#2" to="144905130#0"/>
    <trip id="veh50" type="veh_passenger" depart="219.05" departLane="best" from="145200883#4" to="8094030#3"/>
    <trip id="veh51" type="veh_passenger" depart="223.43" departLane="best" from="623057271#0" to="-513728058#15"/>
    <trip id="veh53" type="veh_passenger" depart="232.20" departLane="best" from="7829603#8" to="623057271#1"/>
    <trip id="veh54" type="veh_passenger" depart="236.58" departLane="best" from="-6837999#5" to="26320074#2"/>
    <trip id="veh56" type="veh_passenger" depart="245.34" departLane="best" from="315220738#0" to="-22960552#2"/>
    <trip id="veh58" type="veh_passenger" depart="254.10" departLane="best" from="-1004354153#0" to="-8023079#0"/>
    <trip id="veh59" type="veh_passenger" depart="258.48" departLane="best" from="1117221463" to="8023285#1"/>
    <trip id="veh60" type="veh_passenger" depart="262.86" departLane="best" from="623057271#6" to="4965245#0"/>
    <trip id="veh61" type="veh_passenger" depart="267.25" departLane="best" from="-7829603#3" to="-196860719#0"/>
    <trip id="veh63" type="veh_passenger" depart="276.01" departLane="best" from="22947199#0" to="32454348#1"/>
    <trip id="veh64" type="veh_passenger" depart="280.39" departLane="best" from="31714133#0" to="23048597"/>
    <trip id="veh65" type="veh_passenger" depart="284.77" departLane="best" from="152845273" to="-22966590#3"/>
    <trip id="veh66" type="veh_passenger" depart="289.15" departLane="best" from="513728058#17" to="623057271#6"/>
    <trip id="veh68" type="veh_passenger" depart="297.91" departLane="best" from="22947205#0" to="312653138#0"/>
    <trip id="veh69" type="veh_passenger" depart="302.29" departLane="best" from="-312517300#4" to="7829647#1"/>
    <trip id="veh70" type="veh_passenger" depart="306.67" departLane="best" from="9385235#0" to="27867820#1"/>
    <trip id="veh71" type="veh_passenger" depart="311.06" departLane="best" from="-144905127#0" to="22762842"/>
    <trip id="veh72" type="veh_passenger" depart="315.44" departLane="best" from="-23010877#5" to="-366099488#8"/>
    <trip id="veh73" type="veh_passenger" depart="319.82" departLane="best" from="-8078919#4" to="23011261#2"/>
    <trip id="veh74" type="veh_passenger" depart="324.20" departLane="best" from="366099524#3" to="366099488#16"/>
    <trip id="veh76" type="veh_passenger" depart="332.96" departLane="best" from="5536392" to="-22947199#3"/>
    <trip id="veh77" type="veh_passenger" depart="337.34" departLane="best" from="366358018#1" to="28367411#6"/>
    <trip id="veh79" type="veh_passenger" depart="346.10" departLane="best" from="8067215#4" to="22976116#1"/>
    <trip id="veh80" type="veh_passenger" depart="350.49" departLane="best" from="152411237#2" to="-366099524#2"/>
    <trip id="veh81" type="veh_passenger" depart="354.87" departLane="best" from="366099556" to="-29095679#3"/>
    <trip id="veh82" type="veh_passenger" depart="359.25" departLane="best" from="-22966665" to="131631094#0"/>
    <trip id="veh84" type="veh_passenger" depart="368.01" departLane="best" from="312517301#2" to="28367411#9"/>
    <trip id="veh85" type="veh_passenger" depart="372.39" departLane="best" from="8795230#9" to="22966683#2"/>
    <trip id="veh86" type="veh_passenger" depart="376.77" departLane="best" from="1115229977#0" to="-8094060"/>
    <trip id="veh87" type="veh_passenger" depart="381.15" departLane="best" from="29095679#3" to="145200883#4"/>
    <trip id="veh89" type="veh_passenger" depart="389.91" departLane="best" from="38098253#2" to="8003456#1"/>
    <trip id="veh90" type="veh_passenger" depart="394.30" departLane="best" from="144905130#1" to="602807575#1"/>
    <trip id="veh92" type="veh_passenger" depart="403.06" departLane="best" from="99360532" to="4970712#4"/>
    <trip id="veh93" type="veh_passenger" depart="407.44" departLane="best" from="-846673347#3" to="8023079#2"/>
    <trip id="veh94" type="veh_passenger" depart="411.82" departLane="best" from="513728058#13" to="-283872957#1"/>
    <trip id="veh95" type="veh_passenger" depart="416.20" departLane="best" from="1115229975#0" to="-196860719#2"/>
    <trip id="veh96" type="veh_passenger" depart="420.58" departLane="best" from="10063177#2" to="89505351#2"/>
    <trip id="veh97" type="veh_passenger" depart="424.96" departLane="best" from="513728058#18" to="-366099524#2"/>
    <trip id="veh99" type="veh_passenger" depart="433.73" departLane="best" from="8094030#9" to="9385235#0"/>
    <trip id="veh100" type="veh_passenger" depart="438.11" departLane="best" from="22966590#3" to="312517300#6"/>
    <trip id="veh101" type="veh_passenger" depart="442.49" departLane="best" from="27867821#1" to="-6837999#3"/>
    <trip id="veh102" type="veh_passenger" depart="446.87" departLane="best" from="-846673347#3" to="23009837#3"/>
    <trip id="veh104" type="veh_passenger" depart="455.63" departLane="best" from="192557291#1" to="23010877#2"/>
    <trip id="veh105" type="veh_passenger" depart="460.01" departLane="best" from="191547348#0" to="519388784#2"/>
    <trip id="veh106" type="veh_passenger" depart="464.39" departLane="best" from="-27940710#0" to="836899588#0"/>
    <trip id="veh107" type="veh_passenger" depart="468.77" departLane="best" from="22966541#0" to="28640160#1"/>
    <trip id="veh108" type="veh_passenger" depart="473.16" departLane="best" from="23011261#2" to="-283872956"/>
    <trip id="veh109" type="veh_passenger" depart="477.54" departLane="best" from="366315539" to="-23010877#3"/>
    <trip id="veh111" type="veh_passenger" depart="486.30" departLane="best" departSpeed="max" from="198055826" to="8067215#3"/>
    <trip id="veh112" type="veh_passenger" depart="490.68" departLane="best" from="-312653136#0" to="312517300#1"/>
    <trip id="veh113" type="veh_passenger" depart="495.06" departLane="best" from="-366358019#0" to="10524865#0"/>
    <trip id="veh114" type="veh_passenger" depart="499.44" departLane="best" from="28367411#2" to="698358567"/>
    <trip id="veh115" type="veh_passenger" depart="503.82" departLane="best" from="-7829672#8" to="-31714132#0"/>
    <trip id="veh116" type="veh_passenger" depart="508.20" departLane="best" from="-22947205#1" to="150387141#1"/>
    <trip id="veh117" type="veh_passenger" depart="512.58" departLane="best" from="9930813" to="9385235#1"/>
    <trip id="veh118" type="veh_passenger" depart="516.97" departLane="best" from="22947220" to="-31723052"/>
    <trip id="veh119" type="veh_passenger" depart="521.35" departLane="best" from="513728058#18" to="8067215#1"/>
    <trip id="veh120" type="veh_passenger" depart="525.73" departLane="best" from="678933849#0" to="-681275747"/>
    <trip id="veh121" type="veh_passenger" depart="530.11" departLane="best" from="-90673928#0" to="-27940710#1"/>
    <trip id="veh122" type="veh_passenger" depart="534.49" departLane="best" departSpeed="max" from="440942370" to="29095677#8"/>
    <trip id="veh124" type="veh_passenger" depart="543.25" departLane="best" from="-27604684#5" to="10063250#12"/>
    <trip id="veh125" type="veh_passenger" depart="547.63" departLane="best" from="27940710#0" to="8069757#1"/>
    <trip id="veh127" type="veh_passenger" depart="556.40" departLane="best" from="-22976116#5" to="-22966590#9"/>
    <trip id="veh129" type="veh_passenger" depart="565.16" departLane="best" from="30334416#1" to="-312653135#1"/>
    <trip id="veh131" type="veh_passenger" depart="573.92" departLane="best" from="169621588" to="7823649#2"/>
    <trip id="veh132" type="veh_passenger" depart="578.30" departLane="best" from="-513728058#0" to="-22966629#1"/>
    <trip id="veh134" type="veh_passenger" depart="587.06" departLane="best" from="-10063177#5" to="366099487"/>
    <trip id="veh135" type="veh_passenger" depart="591.44" departLane="best" from="24881440#0" to="-513728058#12"/>
    <trip id="veh136" type="veh_passenger" depart="595.82" departLane="best" from="312653138#5" to="-22966590#6"/>
    <trip id="veh137" type="veh_passenger" depart="600.21" departLane="best" from="126326763#1" to="-10063250#2"/>
    <trip id="veh138" type="veh_passenger" depart="604.59" departLane="best" from="-22949982#4" to="6837997#14"/>
    <trip id="veh139" type="veh_passenger" depart="608.97" departLane="best" from="7822522#1" to="-22966590#0"/>
    <trip id="veh140" type="veh_passenger" depart="613.35" departLane="best" from="-26320074#4" to="23048591#1"/>
    <trip id="veh141" type="veh_passenger" depart="617.73" departLane="best" from="-7829603#4" to="7823649#0"/>
    <trip id="veh142" type="veh_passenger" depart="622.11" departLane="best" from="366099488#6" to="602807574#3"/>
    <trip id="veh143" type="veh_passenger" depart="626.49" departLane="best" from="-776937734#2" to="-31714132#1"/>
    <trip id="veh146" type="veh_passenger" depart="639.64" departLane="best" from="-114867867#1" to="24881435#3"/>
    <trip id="veh147" type="veh_passenger" depart="644.02" departLane="best" from="-27867821#1" to="8023398#1"/>
    <trip id="veh148" type="veh_passenger" depart="648.40" departLane="best" from="588084860#1" to="8794973#2"/>
    <trip id="veh149" type="veh_passenger" depart="652.78" departLane="best" from="366315538" to="6837997#11"/>
    <trip id="veh151" type="veh_passenger" depart="661.54" departLane="best" from="366099524#1" to="608064129#11"/>
    <trip id="veh152" type="veh_passenger" depart="665.92" departLane="best" from="-366315538" to="-513728058#3"/>
    <trip id="veh153" type="veh_passenger" depart="670.30" departLane="best" from="34416041#0" to="-22976116#6"/>
    <trip id="veh154" type="veh_passenger" depart="674.68" departLane="best" from="-608064129#4" to="602807574#1"/>
    <trip id="veh155" type="veh_passenger" depart="679.07" departLane="best" from="366099488#21" to="38098250"/>
    <trip id="veh156" type="veh_passenger" depart="683.45" departLane="best" from="146526244#1" to="-7820794#8"/>
    <trip id="veh157" type="veh_passenger" depart="687.83" departLane="best" from="-366099488#21" to="-366099524#0"/>
    <trip id="veh159" type="veh_passenger" depart="696.59" departLane="best" from="-8023285#1" to="-608064129#11"/>
    <trip id="veh160" type="veh_passenger" depart="700.97" departLane="best" from="846673347#0" to="608064129#1"/>
    <trip id="veh161" type="veh_passenger" depart="705.35" departLane="best" from="256983968#1" to="11131146#3"/>
    <trip id="veh162" type="veh_passenger" depart="709.73" departLane="best" from="8795230#4" to="22949982#4"/>
    <trip id="veh163" type="veh_passenger" depart="714.11" departLane="best" from="8069757#1" to="-23010002#0"/>
    <trip id="veh164" type="veh_passenger" depart="718.49" departLane="best" from="836899590" to="-513728058#18"/>
    <trip id="veh165" type="veh_passenger" depart="722.88" departLane="best" from="22976120#1" to="144905130#0"/>
    <trip id="veh166" type="veh_passenger" depart="727.26" departLane="best" from="312517301#2" to="-7829672#4"/>
    <trip id="veh168" type="veh_passenger" depart="736.02" departLane="best" from="10063250#12" to="-23009697#1"/>
    <trip id="veh169" type="veh_passenger" depart="740.40" departLane="best" from="-4965233#0" to="-29095680#1"/>
    <trip id="veh170" type="veh_passenger" depart="744.78" departLane="best" from="-10063177#2" to="8023079#1"/>
    <trip id="veh171" type="veh_passenger" depart="749.16" departLane="best" from="22947199#4" to="312517301#0"/>
    <trip id="veh172" type="veh_passenger" depart="753.54" departLane="best" from="312653138#5" to="28367411#7"/>
    <trip id="veh173" type="veh_passenger" depart="757.92" departLane="best" from="8795230#5" to="-22947199#2"/>
    <trip id="veh174" type="veh_passenger" depart="762.31" departLane="best" from="27940710#1" to="-8023398#3"/>
    <trip id="veh175" type="veh_passenger" depart="766.69" departLane="best" from="-7829672#4" to="-513728058#6"/>
    <trip id="veh176" type="veh_passenger" depart="771.07" departLane="best" from="312515063#1" to="698358567"/>
    <trip id="veh177" type="veh_passenger" depart="775.45" departLane="best" from="-7829603#6" to="118966458"/>
    <trip id="veh178" type="veh_passenger" depart="779.83" departLane="best" from="1115229977#0" to="6837997#8"/>
    <trip id="veh180" type="veh_passenger" depart="788.59" departLane="best" from="7820794#8" to="24610526#3"/>
    <trip id="veh181" type="veh_passenger" depart="792.97" departLane="best" from="-776937734#1" to="22966590#12"/>
    <trip id="veh183" type="veh_passenger" depart="801.74" departLane="best" from="27867819" to="-154147669#2"/>
    <trip id="veh184" type="veh_passenger" depart="806.12" departLane="best" from="144905130#1" to="-32316073#0"/>
    <trip id="veh185" type="veh_passenger" depart="810.50" departLane="best" from="152411237#4" to="7823649#2"/>
    <trip id="veh186" type="veh_passenger" depart="814.88" departLane="best" from="366099488#5" to="-283872963"/>
    <trip id="veh187" type="veh_passenger" depart="819.26" departLane="best" from="22966590#2" to="-198026703"/>
    <trip id="veh190" type="veh_passenger" depart="832.40" departLane="best" from="28367411#3" to="-366099488#8"/>
    <trip id="veh192" type="veh_passenger" depart="841.16" departLane="best" from="-374968456#2" to="169621588"/>
    <trip id="veh193" type="veh_passenger" depart="845.55" departLane="best" from="513728058#14" to="22947205#1"/>
    <trip id="veh194" type="veh_passenger" depart="849.93" departLane="best" from="118967829#23" to="24881435#6"/>
    <trip id="veh195" type="veh_passenger" depart="854.31" departLane="best" from="29895998#1" to="29095675#2"/>
    <trip id="veh196" type="veh_passenger" depart="858.69" departLane="best" from="182537900#2" to="-366358020#1"/>
    <trip id="veh197" type="veh_passenger" depart="863.07" departLane="best" departSpeed="max" from="312653144#0" to="361314813"/>
    <trip id="veh198" type="veh_passenger" depart="867.45" departLane="best" from="-22976116#4" to="126063396#0"/>
    <trip id="veh199" type="veh_passenger" depart="871.83" departLane="best" from="283872967#2" to="8094060"/>
    <trip id="veh201" type="veh_passenger" depart="880.59" departLane="best" from="38098253#2" to="-513728058#6"/>
    <trip id="veh202" type="veh_passenger" depart="884.98" departLane="best" from="-146526181#0" to="38098247"/>
    <trip id="veh203" type="veh_passenger" depart="889.36" departLane="best" from="-28061432#3" to="913787264#0"/>
    <trip id="veh204" type="veh_passenger" depart="893.74" departLane="best" from="23047248#0" to="8094030#19"/>
    <trip id="veh205" type="veh_passenger" depart="898.12" departLane="best" from="-6837997#5" to="24610526#3"/>
    <trip id="veh206" type="veh_passenger" depart="902.50" departLane="best" from="312515063#1" to="191547349#2"/>
    <trip id="veh207" type="veh_passenger" depart="906.88" departLane="best" from="-439694439#3" to="22966590#12"/>
    <trip id="veh209" type="veh_passenger" depart="915.64" departLane="best" from="-152411238" to="-513728058#0"/>
    <trip id="veh210" type="veh_passenger" depart="920.02" departLane="best" from="38098253#0" to="257022829#1"/>
    <trip id="veh211" type="veh_passenger" depart="924.40" departLane="best" from="31714133#0" to="22874455#0"/>
    <trip id="veh212" type="veh_passenger" depart="928.79" departLane="best" departSpeed="max" from="24881400#0" to="588084859#0"/>
    <trip id="veh213" type="veh_passenger" depart="933.17" departLane="best" from="-554289939#1" to="-7829716#5"/>
    <trip id="veh215" type="veh_passenger" depart="941.93" departLane="best" from="366099524#4" to="28657871#0"/>
    <trip id="veh216" type="veh_passenger" depart="946.31" departLane="best" from="29095677#17" to="-22947144#1"/>
    <trip id="veh217" type="veh_passenger" depart="950.69" departLane="best" from="115207295#1" to="-126326763#1"/>
    <trip id="veh218" type="veh_passenger" depart="955.07" departLane="best" from="118967829#26" to="-312653141#0"/>
    <trip id="veh220" type="veh_passenger" depart="963.83" departLane="best" from="23009837#1" to="29095675#1"/>
    <trip id="veh221" type="veh_passenger" depart="968.22" departLane="best" from="51574849" to="34416038#2"/>
    <trip id="veh222" type="veh_passenger" depart="972.60" departLane="best" from="846673351#2" to="-31714133#0"/>
    <trip id="veh223" type="veh_passenger" depart="976.98" departLane="best" from="513728058#3" to="8094030#26"/>
    <trip id="veh226" type="veh_passenger" depart="990.12" departLane="best" from="131631094#0" to="-126326763#1"/>
    <trip id="veh227" type="veh_passenger" depart="994.50" departLane="best" from="-8067215#6" to="283872959#1"/>
    <trip id="veh228" type="veh_passenger" depart="998.88" departLane="best" from="1115229978#1" to="-283872956"/>
    <trip id="veh235" type="veh_passenger" depart="1029.55" departLane="best" from="31714133#1" to="-8023080#0"/>
    <trip id="veh236" type="veh_passenger" depart="1033.93" departLane="best" from="315220733" to="10063177#2"/>
    <trip id="veh237" type="veh_passenger" depart="1038.31" departLane="best" departSpeed="max" from="312653144#0" to="4965245#1"/>
    <trip id="veh238" type="veh_passenger" depart="1042.69" departLane="best" from="1117221463" to="22960552#2"/>
    <trip id="veh239" type="veh_passenger" depart="1047.07" departLane="best" from="99360538" to="-846673349#3"/>
    <trip id="veh240" type="veh_passenger" depart="1051.46" departLane="best" from="-26549167#2" to="366099522#0"/>
    <trip id="veh241" type="veh_passenger" depart="1055.84" departLane="best" from="-26948585#1" to="-31714133#1"/>
    <trip id="veh242" type="veh_passenger" depart="1060.22" departLane="best" from="8094030#18" to="312517300#1"/>
    <trip id="veh244" type="veh_passenger" depart="1068.98" departLane="best" from="22966629#3" to="-366099488#0"/>
    <trip id="veh245" type="veh_passenger" depart="1073.36" departLane="best" from="-28640160#1" to="34416040#1"/>
    <trip id="veh247" type="veh_passenger" depart="1082.12" departLane="best" departSpeed="max" from="312653144#0" to="-23009975#0"/>
    <trip id="veh248" type="veh_passenger" depart="1086.50" departLane="best" from="374968456#4" to="836899593#0"/>
    <trip id="veh250" type="veh_passenger" depart="1095.27" departLane="best" from="-7829647#1" to="-283872957#1"/>
    <trip id="veh251" type="veh_passenger" depart="1099.65" departLane="best" from="29095680#0" to="-22960517#2"/>
    <trip id="veh252" type="veh_passenger" depart="1104.03" departLane="best" from="-283872970#0" to="24881435#6"/>
    <trip id="veh253" type="veh_passenger" depart="1108.41" departLane="best" from="-22966740" to="366099488#0"/>
    <trip id="veh254" type="veh_passenger" depart="1112.79" departLane="best" from="513728058#15" to="23048624#1"/>
    <trip id="veh255" type="veh_passenger" depart="1117.17" departLane="best" from="-23010877#5" to="8795230#8"/>
    <trip id="veh256" type="veh_passenger" depart="1121.55" departLane="best" from="34416038#0" to="-846673347#4"/>
    <trip id="veh257" type="veh_passenger" depart="1125.93" departLane="best" from="126326763#3" to="-913787264#0"/>
    <trip id="veh258" type="veh_passenger" depart="1130.31" departLane="best" from="513728058#14" to="38211844#1"/>
    <trip id="veh259" type="veh_passenger" depart="1134.70" departLane="best" from="-22976116#1" to="836899588#0"/>
    <trip id="veh261" type="veh_passenger" depart="1143.46" departLane="best" from="29095677#19" to="144905130#0"/>
    <trip id="veh262" type="veh_passenger" depart="1147.84" departLane="best" from="312653136#0" to="836899598"/>
    <trip id="veh263" type="veh_passenger" depart="1152.22" departLane="best" from="51574849" to="38098249#2"/>
    <trip id="veh266" type="veh_passenger" depart="1165.36" departLane="best" from="513728058#7" to="519388784#1"/>
    <trip id="veh267" type="veh_passenger" depart="1169.74" departLane="best" departSpeed="max" from="440942370" to="-22966590#5"/>
    <trip id="veh268" type="veh_passenger" depart="1174.13" departLane="best" from="678933849#1" to="366358020#1"/>
    <trip id="veh270" type="veh_passenger" depart="1182.89" departLane="best" from="10063177#2" to="-126326763#1"/>
    <trip id="veh271" type="veh_passenger" depart="1187.27" departLane="best" from="513728058#16" to="-28414127#0"/>
    <trip id="veh272" type="veh_passenger" depart="1191.65" departLane="best" from="31723052" to="-366358019#1"/>
    <trip id="veh273" type="veh_passenger" depart="1196.03" departLane="best" from="825861582#1" to="6837997#0"/>
    <trip id="veh274" type="veh_passenger" depart="1200.41" departLane="best" from="-28657871#2" to="602807575#1"/>
    <trip id="veh275" type="veh_passenger" depart="1204.79" departLane="best" from="10063250#4" to="8094030#15"/>
    <trip id="veh276" type="veh_passenger" depart="1209.17" departLane="best" from="22966590#3" to="312517301#0"/>
    <trip id="veh277" type="veh_passenger" depart="1213.56" departLane="best" from="283872970#0" to="26948585#3"/>
    <trip id="veh279" type="veh_passenger" depart="1222.32" departLane="best" from="22966629#2" to="-366099488#20"/>
    <trip id="veh280" type="veh_passenger" depart="1226.70" departLane="best" from="-22976120#4" to="158492394#1"/>
    <trip id="veh281" type="veh_passenger" depart="1231.08" departLane="best" from="22947144#1" to="126063396#1"/>
    <trip id="veh282" type="veh_passenger" depart="1235.46" departLane="best" from="312653141#0" to="-8023398#4"/>
    <trip id="veh283" type="veh_passenger" depart="1239.84" departLane="best" from="-388890506#1" to="-23010877#5"/>
    <trip id="veh285" type="veh_passenger" depart="1248.60" departLane="best" from="-28640160#0" to="-34416041#0"/>
    <trip id="veh286" type="veh_passenger" depart="1252.98" departLane="best" from="158492394#0" to="312653135#0"/>
    <trip id="veh287" type="veh_passenger" depart="1257.37" departLane="best" from="8794973#4" to="22933868"/>
    <trip id="veh289" type="veh_passenger" depart="1266.13" departLane="best" from="29895998#1" to="-366099524#0"/>
    <trip id="veh290" type="veh_passenger" depart="1270.51" departLane="best" from="-283872970#3" to="-1028203635"/>
    <trip id="veh291" type="veh_passenger" depart="1274.89" departLane="best" from="22947166#3" to="-564341880#1"/>
    <trip id="veh292" type="veh_passenger" depart="1279.27" departLane="best" from="846673351#4" to="-22966590#9"/>
    <trip id="veh298" type="veh_passenger" depart="1305.56" departLane="best" from="38098253#1" to="1115229975#0"/>
    <trip id="veh299" type="veh_passenger" depart="1309.94" departLane="best" from="-22949982#2" to="24881435#6"/>
    <trip id="veh300" type="veh_passenger" depart="1314.32" departLane="best" from="-191547349#2" to="-26549167#1"/>
    <trip id="veh301" type="veh_passenger" depart="1318.70" departLane="best" from="22966629#1" to="7820794#3"/>
    <trip id="veh302" type="veh_passenger" depart="1323.08" departLane="best" from="929292528#1" to="23010877#13"/>
    <trip id="veh304" type="veh_passenger" depart="1331.84" departLane="best" from="-366099488#0" to="366099519#0"/>
    <trip id="veh305" type="veh_passenger" depart="1336.23" departLane="best" departSpeed="max" from="198055826" to="146526181#0"/>