<?xml version="1.0" encoding="UTF-8"?>

<!-- generated on 2022-12-19 13:27:27.446532 by randomTrips.py v1_15_0+0002-e6790248698
<configuration>
    <end value="50"/>
    <length value="True"/>
    <net-file value="sample_test.net.xml"/>
    <route-file value="sample_test.rou.xml"/>
</configuration>
-->

<!-- generated on 2022-12-19 13:27:27 by Eclipse SUMO duarouter Version 1.15.0
<configuration xmlns:xsi="http://www.w3.org/2001/XMLSchema-instance" xsi:noNamespaceSchemaLocation="http://sumo.dlr.de/xsd/duarouterConfiguration.xsd">

    <input>
        <net-file value="sample_test.net.xml"/>
        <route-files value="trips.trips.xml"/>
    </input>

    <output>
        <output-file value="sample_test.rou.xml"/>
        <alternatives-output value="NUL"/>
    </output>

    <time>
        <begin value="0"/>
        <end value="50"/>
    </time>

    <report>
        <no-warnings value="true"/>
        <ignore-errors value="true"/>
        <no-step-log value="true"/>
    </report>

</configuration>
-->

<routes xmlns:xsi="http://www.w3.org/2001/XMLSchema-instance" xsi:noNamespaceSchemaLocation="http://sumo.dlr.de/xsd/routes_file.xsd">
    <vehicle id="1" depart="1.00">
        <route edges="-26215863#3 -26215863#2 -26215863#1 -26215863#0 26216613#5 370606695#0 370606695#1 366357976#0 366357976#1 -151894323#1 -151894323#0 -314249737 -366357983 -366357984#1 -366357984#0 -314249733#1 -314249733#0 -314249082#2 -314249082#1 -314249082#0 -314249085 -314249079 -314249084#2 -314249084#1 -314249084#0 26215161#0 26215161#1 -26215163#2"/>
    </vehicle>
    <vehicle id="2" depart="2.00">
        <route edges="26215165#6 26215165#7 26215165#8 26215165#9 26215165#10 26215165#11 26215165#12 -314249079 -314249084#2 -314249084#1 -314249084#0 26215161#0 26215161#1"/>
    </vehicle>
    <vehicle id="3" depart="3.00">
        <route edges="314249085 314249082#0 314249082#1 314249082#2 314249733#0 314249733#1 366357984#0 366357984#1 366357983 314249737 151894323#0 151894323#1 -366357980#1 -366357980#0 -27201413#1 -27201413#0 -179337797#1 -179337797#0 -27201452#4 -27201452#3 -27201452#2 -27201452#1 -27201452#0 -144773283#8 -144773283#7 -144773283#6 -144773283#5 -144773283#4 -144773283#3 -144773283#2 -144773283#1 -144773283#0 19051636#0 19051636#1 19051636#2 19051636#3 19051636#4 19051636#5 19051636#6 318850888#0 318850888#1 -318850888#1 -318850888#0 -19051636#6"/>
    </vehicle>
    <vehicle id="4" depart="4.00">
        <route edges="-443385814#2 -443385814#1 -443385814#0 -26214220#3 -26214220#2 -26214220#1 -26214220#0 -443385815#2 -443385815#1 -443385815#0 -8792491#2 -8792491#1 -8792491#0 26214218#0 26214218#1 26214218#2 314249083#0 314249083#1 314249083#2 314249083#3 26215171#0 26215171#1 -144774339#4"/>
    </vehicle>
    <vehicle id="5" depart="5.00">
        <route edges="-26215163#2 -26215162#0 -144774339#2 -144774339#1 -144774339#0 314249083#0 144774335#0 144774335#1 144774335#2"/>
    </vehicle>
    <vehicle id="6" depart="6.00">
        <route edges="-144774339#4 -144774339#3 26215162#0 26215163#2 -26215161#1"/>
    </vehicle>
    <vehicle id="8" depart="8.00">
        <route edges="-26215163#3 -26215161#1 -26215161#0 -5536385#3 -5536385#2 -5536385#1 -5536385#0 38571673 314249081#0 314249081#1 314249081#2 314249081#3 314249081#4 314249080#0 314249080#1 314249080#2 314249080#3 314249080#4 314249080#5 314249080#6 314249080#7 29045633#0 29045633#1 366322366#0 366322366#1 366322361 366322363#0 366322363#1 366322364 29045632 366322365 -156257931#1 -156257931#0 19051636#0 19051636#1 19051636#2 19051636#3 19051636#4 19051636#5 19051636#6 318850888#0 318850888#1 -22719017#1 -22719017#0 22719020#0 22718880#0 22718880#1 22718880#2 22718880#3 22718880#4 22718880#5 22718880#6 22718886#0 22718886#1 22718886#2 22718886#3 22718886#4 22718886#5 22718886#6 22718883"/>
    </vehicle>
    <vehicle id="9" depart="9.00">
        <route edges="27201452#0 27201452#1 27201452#2 27201452#3 27201452#4 -27201452#4 -27201452#3 -27201452#2 -27201452#1 -27201452#0 -144773283#8 -144773283#7 -144773283#6 -144773283#5 -144773283#4 -144773283#3 -144773283#2 -144773283#1 -144773283#0 19051636#0 19051636#1 19051636#2 19051636#3 19051636#4 19051636#5 19051636#6 318850888#0 318850888#1 -22719017#1 -22719017#0 22719020#0 22718880#0 22718880#1 22718880#2 22718880#3 22718880#4 22718880#5 22718880#6 22718886#0 22718886#1 22718886#2 22718886#3 22718886#4 22718886#5 22718886#6 -28922715 -121497755#3"/>
    </vehicle>
    <vehicle id="10" depart="10.00">
        <route edges="27200967#3 27200967#4 27200967#5 27200967#6 27200967#7 135798587#2 366322368#0 366322368#1 366322368#2 366322368#3 366322368#4 366322368#5 366322368#6 366322368#7 366322368#8 366322368#9 366322368#10 366322368#11 366322368#12 366322368#13 366322368#14 366322368#15 366322368#16 156257931#0 156257931#1 -366322365 -29045632 -366322364 -366322363#1 -366322363#0 -366322361 -366322366#1 -366322366#0 -29045633#1 -29045633#0 -314249080#7 -314249080#6 -314249080#5 -314249080#4 -314249080#3 -314249080#2 -314249080#1 -314249080#0 -314249081#4 -314249081#3 -314249081#2 -314249081#1 -314249081#0 -38571673 156257930#0 156257930#1 144774339#0 144774339#1 144774339#2 26215162#0"/>
    </vehicle>
    <vehicle id="12" depart="12.00">
        <route edges="816594925#3 816594925#4 27200967#0 27200967#1 27200967#2 27200967#3 27200967#4 27200967#5 27200967#6 27200967#7 -135798587#1 -135798587#0 -934770633 -366322367 -934770634 -156257936#6 -156257936#5 -156257936#4 -156257936#3 27268234#0 27268234#1 27268234#2 27268234#3 -27268234#3"/>
    </vehicle>
    <vehicle id="13" depart="13.00">
        <route edges="-22718880#2 -22718880#1 -22718880#0 22719020#1 22719020#2 10063457 370351014#0 370351014#1 370351014#2 370351014#3 -314249080#7 -314249080#6 -314249080#5 -314249080#4 -314249080#3 -314249080#2 -314249080#1 -314249080#0 -314249081#4 -314249081#3 -314249081#2 -314249081#1 -314249081#0 -38571673 156257930#0 156257930#1 314249083#0 314249083#1 314249083#2 314249083#3 -19052748#2 -19052748#1 -19052748#0"/>
    </vehicle>
    <vehicle id="14" depart="14.00">
        <route edges="27502934#1 27502934#2 27502934#3 27502933#0 27502933#1 27502933#2 27502933#3 27502933#4 366322368#1 366322368#2 366322368#3 366322368#4 366322368#5 366322368#6 366322368#7 366322368#8 366322368#9 366322368#10 366322368#11 366322368#12 366322368#13 366322368#14 366322368#15 366322368#16 19051636#0 19051636#1 19051636#2 19051636#3 19051636#4 19051636#5 19051636#6 318850888#0 318850888#1 -22719017#1 -22719017#0 22719020#0"/>
    </vehicle>
    <vehicle id="15" depart="15.00">
        <route edges="27201413#1 366357980#0 366357980#1 -151894323#1 -151894323#0 -314249737 -366357983 -366357984#1 -366357984#0 -314249733#1 -314249733#0 -314249082#2 -314249082#1 -314249082#0 -314249085 -26215165#12 -26215165#11 -26215165#10 -26215165#9 -26215165#8 -26215165#7 -26215165#6 -26215165#5 -26215165#4 -26215165#3 -26215165#2 -26215165#1 -26215165#0 26215165#0 26215165#1 26215165#2"/>
    </vehicle>
    <vehicle id="16" depart="16.00">
        <route edges="156257924#0 -156257924#0 -8792350#5 -8792350#4 -8792350#3 -8792350#2 -8792350#1 -8792350#0 -8792278#15 -8792278#14 -8792278#13 -8792278#12 8792278#12"/>
    </vehicle>
    <vehicle id="17" depart="17.00">
        <route edges="-314249083#0 -156257930#1 -156257930#0 38571673 314249081#0 314249081#1 314249081#2 314249081#3 314249081#4 314249080#0 314249080#1 314249080#2 314249080#3 314249080#4 314249080#5 314249080#6 314249080#7 29045633#0 29045633#1 366322366#0 366322366#1 366322361 366322363#0 366322363#1 366322364 29045632 366322365 -156257931#1 -156257931#0 19051636#0 19051636#1 19051636#2 19051636#3 19051636#4 19051636#5 -19051544#4 -19051544#3 -19051544#2 19051544#2"/>
    </vehicle>
    <vehicle id="19" depart="19.00">
        <route edges="27850915#2 27850915#3 27850915#4 -27850915#4 -27850915#3 -27850915#2 -27850915#1 -27850915#0 135798587#1 135798587#2 366322368#0 366322368#1 366322368#2 366322368#3 366322368#4 366322368#5 366322368#6 366322368#7 366322368#8 366322368#9 366322368#10 366322368#11 366322368#12 366322368#13 366322368#14 366322368#15 366322368#16 156257931#0 156257931#1 -366322365 -29045632 -366322364 -366322363#1 -366322363#0 -366322361 -366322366#1 -366322366#0 -29045633#1 -29045633#0 -314249080#7 -314249080#6 -314249080#5 -314249080#4 -314249080#3 -314249080#2 -314249080#1 -314249080#0 -314249081#4 -314249081#3 -314249081#2 -314249081#1 -314249081#0 26214219#0 26214219#1 26214219#2 -8792491#2 -8792491#1 8792581#0 8792581#1 8792581#2 8792581#3 8792581#4 8792581#5 8792581#6 156257924#1 19052748#0"/>
    </vehicle>
    <vehicle id="20" depart="20.00">
        <route edges="26215162#0 -26215163#1 -26215163#0 -26215171#2 -26215171#1 -26215171#0 -19052748#2 -19052748#1 -19052748#0 -156257924#1 -29002709 -156257918#10 -156257918#9"/>
    </vehicle>
    <vehicle id="21" depart="21.00">
        <route edges="-26215165#2 -26215165#1 -26215165#0 26215165#0 26215165#1 26215165#2 26215165#3 26215165#4 26215165#5 26215165#6 26215165#7 26215165#8 26215165#9 26215165#10 26215165#11 26215165#12 314249085 314249082#0 314249082#1 314249082#2 314249733#0 314249733#1 366357984#0 366357984#1 366357983 314249737 151894323#0 151894323#1 -366357976#1 -366357976#0 -370606695#1 -370606695#0 -26216613#5 -26216613#4 -26216613#3 -26216613#2 -26216613#1 -26216613#0"/>
    </vehicle>
    <vehicle id="22" depart="22.00">
        <route edges="-19052148#2 -19052148#1 -19052148#0 19051602#1 19051602#2 19051602#3 598391713 27200967#0 27200967#1 27200967#2 27200967#3 27200967#4 27200967#5 27200967#6 27200967#7 135798587#2 366322368#0 366322368#1 366322368#2 366322368#3 366322368#4 366322368#5 366322368#6 366322368#7 366322368#8 366322368#9 366322368#10 366322368#11 366322368#12 366322368#13 366322368#14 366322368#15 366322368#16 156257931#0 156257931#1 -366322365 -29045632 -366322364 -366322363#1 -366322363#0 -366322361 -366322366#1 -366322366#0 -29045633#1 -29045633#0 -314249080#7 -314249080#6 -314249080#5 -314249080#4 -314249080#3 -314249080#2 -314249080#1 -314249080#0 -314249081#4 -314249081#3 -314249081#2 -314249081#1 -314249081#0 -38571673 5536385#0 5536385#1 5536385#2 5536385#3 314249084#0 314249084#1 314249084#2 314249079 -26215165#12 -26215165#11"/>
    </vehicle>
    <vehicle id="23" depart="23.00">
        <route edges="-22718938#1 -22718938#0 19051602#2 19051602#3 598391713 27200967#0 27200967#1 27200967#2 27200967#3 27200967#4 27200967#5 27200967#6 27200967#7 -135798587#1 -135798587#0 -934770633 -366322367 -934770634 -156257936#6 -156257936#5 -156257936#4 -156257936#3 27268234#0 27268234#1 27268234#2 27268234#3 -27202776#2 -27202776#1 -27202776#0 27201413#0 27201413#1 366357980#0 366357980#1 -366357976#1 -366357976#0 -370606695#1 -370606695#0 -26216613#5 26215863#0 26215863#1 26215863#2 -26215868 26215862#2 -26215866"/>
    </vehicle>
    <vehicle id="25" depart="25.00">
        <route edges="-294973898 -26214222#2 -26214222#1 -26214222#0 -314249080#2 -314249080#1 -314249080#0 -314249081#4 -314249081#3 -314249081#2 -314249081#1 -314249081#0 -38571673 156257930#0 156257930#1 144774339#0 144774339#1 144774339#2 26215162#0 -26215162#0"/>
    </vehicle>
    <vehicle id="26" depart="26.00">
        <route edges="-26215862#2 26215868 -26215863#2 -26215863#1 -26215863#0 26216613#5 370606695#0 370606695#1 366357976#0 366357976#1 -151894323#1 -151894323#0 -314249737 -366357983 -366357984#1 -366357984#0 -314249733#1 -314249733#0 -314249082#2 -314249082#1 -314249082#0 -314249085 -314249079 -314249084#2 -314249084#1 -314249084#0 -5536385#3 -5536385#2 -5536385#1 -5536385#0 38571673 26214219#0 26214219#1 26214219#2 443385815#0"/>
    </vehicle>
    <vehicle id="28" depart="28.00">
        <route edges="-26214409#1 -26214409#0 8792581#4 8792581#5 8792581#6 156257924#1 144774337#0 144774337#1 144774337#2 144774337#3 144774337#4 26214218#0 26214218#1 26214218#2 -156257930#1 -156257930#0 5536385#0 5536385#1 5536385#2 5536385#3 314249084#0 314249084#1 314249084#2 314249079 -26215165#12 -26215165#11 -26215165#10 -26215165#9 -26215165#8 -26215165#7 -26215165#6 -26215165#5 -26215165#4 -26215165#3 -26215165#2 -26215165#1 -26215165#0 26215165#0 26215165#1 26215165#2"/>
    </vehicle>
    <vehicle id="29" depart="29.00">
        <route edges="-26214408#2 -26214408#1 -26214408#0 8792581#3 8792581#4 8792581#5 8792581#6 156257924#1 144774337#0 144774337#1 144774337#2 144774337#3 -144774335#2 -144774335#1 -144774335#0 -314249083#0"/>
    </vehicle>
    <vehicle id="30" depart="30.00">
        <route edges="8792491#2 443385815#0 443385815#1 443385815#2 26214220#0 26214220#1 26214220#2 26214220#3"/>
    </vehicle>
    <vehicle id="31" depart="31.00">
        <route edges="19051544#2 19051544#3 19051544#4 -19051636#5 -19051636#4 -19051636#3 -19051636#2 -19051636#1 -19051636#0 156257931#0 156257931#1 -366322365 -29045632 -366322364 -366322363#1 -366322363#0 -366322361 -366322366#1 -366322366#0 -29045633#1 -29045633#0 -314249080#7 -314249080#6 -314249080#5 -314249080#4 -314249080#3 -314249080#2 -314249080#1 -314249080#0 -314249081#4 -314249081#3 -314249081#2 -314249081#1 -314249081#0 -38571673 5536385#0 5536385#1 5536385#2 5536385#3 26215161#0 26215161#1"/>
    </vehicle>
    <vehicle id="32" depart="32.00">
        <route edges="27502933#2 27502933#3 27502933#4 366322368#1 366322368#2 366322368#3 366322368#4 366322368#5 366322368#6 366322368#7 366322368#8 366322368#9 366322368#10 366322368#11 366322368#12 366322368#13 366322368#14 366322368#15 366322368#16 144773283#0 144773283#1 144773283#2 144773283#3 144773283#4 144773283#5 144773283#6 144773283#7 144773283#8 27201452#0 27201452#1 27201452#2 27201452#3 27201452#4 179337797#0 179337797#1 27201413#0 27201413#1 366357980#0 366357980#1 -366357976#1 -366357976#0 -370606695#1 -370606695#0 -26216613#5 26215863#0 26215863#1 26215863#2 26215863#3 26215863#4 26215863#5"/>
    </vehicle>
    <vehicle id="33" depart="33.00">
        <route edges="-26215165#2 -26215165#1 -26215165#0 26215165#0 26215165#1 26215165#2 26215165#3 26215165#4 26215165#5 26215165#6 26215165#7 26215165#8 26215165#9 26215165#10 26215165#11 26215165#12 314249085 314249082#0 314249082#1 314249082#2 314249733#0 314249733#1 366357984#0 366357984#1 366357983 314249737 151894323#0 151894323#1 -151894323#1 -151894323#0"/>
    </vehicle>
    <vehicle id="34" depart="34.00">
        <route edges="-27202776#1 -27202776#0 27201413#0 27201413#1 366357980#0 366357980#1 -366357976#1 -366357976#0 -370606695#1 -370606695#0 -26216613#5 26215863#0 26215863#1 26215863#2 26215863#3 26215863#4 -26215863#4"/>
    </vehicle>
    <vehicle id="35" depart="35.00">
        <route edges="-26215163#0 -26215171#2 -26215171#1 -26215171#0 -19052748#2 -19052748#1 -19052748#0 -156257924#1 -156257924#0 -8792350#5 -8792350#4 -8792350#3 -8792350#2 -8792350#1 -8792350#0 -8792278#15 -8792278#14 443385816#0"/>
    </vehicle>
    <vehicle id="36" depart="36.00">
        <route edges="314249081#1 314249081#2 314249081#3 314249081#4 314249080#0 314249080#1 314249080#2 314249080#3 314249080#4 314249080#5 314249080#6 314249080#7 29045633#0 29045633#1 366322366#0 366322366#1 366322361 366322363#0 366322363#1 366322364 29045632 366322365 -156257931#1 -156257931#0 144773283#0 144773283#1 144773283#2 144773283#3 144773283#4 144773283#5 144773283#6 144773283#7 144773283#8 27201452#0 27201452#1 27201452#2 27201452#3 27201452#4 -27201452#4 -27201452#3 -27201452#2 -27201452#1 -27201452#0"/>
    </vehicle>
    <vehicle id="37" depart="37.00">
        <route edges="26214222#2 294973898 443385815#1 443385815#2 -8792278#10 -8792278#9 -8792278#8 -8792278#7 -8792278#6 -8792278#5 -8792278#4 -8792278#3 -8792278#2 -8792278#1 -8792278#0 -22719020#2 -22719020#1 -22719020#0 22719017#0 22719017#1 -318850888#1 -318850888#0"/>
    </vehicle>
    <vehicle id="38" depart="38.00">
        <route edges="366357984#1 366357983 314249737 151894323#0 151894323#1 -366357980#1 -366357980#0 -27201413#1 -27201413#0 -179337797#1 -179337797#0 -27201452#4 -27201452#3 -27201452#2 -27201452#1 -27201452#0 -144773283#8 -144773283#7 -144773283#6 -144773283#5 -144773283#4 -144773283#3 -144773283#2 -144773283#1 -144773283#0 19051636#0 19051636#1 19051636#2 19051636#3 19051636#4 19051636#5 19051636#6 318850888#0 318850888#1 318850892 -8792149"/>
    </vehicle>
    <vehicle id="39" depart="39.00">
        <route edges="-26215862#1 -26215862#0 26216613#2 26216613#3 26216613#4 26216613#5 370606695#0 370606695#1 366357976#0 366357976#1 -151894323#1 -151894323#0 -314249737 -366357983 -366357984#1 -366357984#0 -314249733#1 -314249733#0 -314249082#2 -314249082#1 -314249082#0 -314249085 -26215165#12 -26215165#11 -26215165#10 -26215165#9"/>
    </vehicle>
    <vehicle id="40" depart="40.00">
        <route edges="19051544#3 19051544#4 -19051636#5 -19051636#4 -19051636#3 -19051636#2 -19051636#1 -19051636#0 144773283#0 144773283#1 144773283#2 144773283#3 144773283#4 144773283#5 144773283#6 144773283#7 144773283#8 27201452#0 27201452#1 27201452#2 27201452#3 27201452#4 179337797#0 179337797#1 27201413#0 27201413#1 366357980#0 366357980#1 -366357976#1 -366357976#0 -370606695#1 -370606695#0 -26216613#5 26215863#0 26215863#1 26215863#2 26215863#3 26215863#4 26215863#5 -26215865#1 -26215862#4"/>
    </vehicle>
    <vehicle id="41" depart="41.00">
        <route edges="19052148#2 -19052148#2 -19052148#1 -19052148#0 19051602#1 19051602#2 19051602#3 598391713 27200967#0 27200967#1 27200967#2 27200967#3 27200967#4 27200967#5 27200967#6 27200967#7 135798587#2 366322368#0 366322368#1 366322368#2 366322368#3 366322368#4 366322368#5 366322368#6 366322368#7 366322368#8 366322368#9 366322368#10 366322368#11 366322368#12 366322368#13 366322368#14 366322368#15 366322368#16 156257931#0 156257931#1 -366322365 -29045632 -366322364 -366322363#1 -366322363#0 -366322361 -366322366#1 -366322366#0 -29045633#1 -29045633#0 -314249080#7 -314249080#6 -314249080#5 -314249080#4 -314249080#3 -314249080#2 -314249080#1 -314249080#0 -314249081#4 -314249081#3 -314249081#2 -314249081#1 -314249081#0 -38571673 5536385#0 5536385#1 5536385#2 5536385#3 314249084#0 314249084#1 314249084#2 314249079 314249085 314249082#0 314249082#1 314249082#2 314249733#0"/>
    </vehicle>
    <vehicle id="42" depart="42.00">
        <route edges="-366322364 -366322363#1 -366322363#0 -366322361 -366322366#1 -366322366#0 -29045633#1 -29045633#0 -314249080#7 -314249080#6 -314249080#5 -314249080#4 -314249080#3 -314249080#2 -314249080#1 -314249080#0 -314249081#4 -314249081#3 -314249081#2 -314249081#1 -314249081#0 -38571673 156257930#0 156257930#1 144774339#0 144774339#1 144774339#2 26215162#0 -26215163#1 -26215163#0"/>
    </vehicle>
    <vehicle id="43" depart="43.00">
        <route edges="916490171#3 -916490171#3 -916490171#2 -916490171#1 -916490171#0 -366322366#0 -29045633#1 -29045633#0 -314249080#7 -314249080#6 -314249080#5 -314249080#4 -314249080#3 -314249080#2 -314249080#1 -314249080#0 -314249081#4 -314249081#3 -314249081#2 -314249081#1 -314249081#0 -38571673 156257930#0 156257930#1 314249083#0 314249083#1 255101537#0 255101537#1 255101537#2 144774337#1 144774337#2"/>
    </vehicle>
    <vehicle id="44" depart="44.00">
        <route edges="-19052748#1 -19052748#0 144774337#0 144774337#1 144774337#2 144774337#3 144774337#4 26214218#0 26214218#1 26214218#2 -156257930#1 -156257930#0"/>
    </vehicle>
    <vehicle id="46" depart="46.00">
        <route edges="26216613#3 26216613#4 26216613#5 370606695#0 370606695#1 366357976#0 366357976#1 -151894323#1 -151894323#0 -314249737 -366357983 -366357984#1 -366357984#0 -314249733#1 -314249733#0 -314249082#2 -314249082#1 -314249082#0 -314249085 -314249079 -314249084#2 -314249084#1 -314249084#0 -5536385#3 -5536385#2 -5536385#1 -5536385#0 38571673 26214219#0 26214219#1 26214219#2 443385815#0 -443385815#0"/>
    </vehicle>
    <vehicle id="47" depart="47.00">
        <route edges="-19051544#4 -19051544#3 -19051544#2 598391713 27200967#0 27200967#1 27200967#2 27200967#3 27200967#4 27200967#5 27200967#6 27200967#7 135798587#2 366322368#0 366322368#1 366322368#2 366322368#3 366322368#4 366322368#5 366322368#6 366322368#7 366322368#8 366322368#9 366322368#10 366322368#11 366322368#12 366322368#13 366322368#14 366322368#15 366322368#16 156257931#0 156257931#1 -366322365 -29045632 -366322364 -366322363#1 -366322363#0 -366322361 -366322366#1 -366322366#0 -29045633#1 -29045633#0 -314249080#7 -314249080#6 -314249080#5 -314249080#4 -314249080#3 -314249080#2 -314249080#1 -314249080#0 -314249081#4 -314249081#3 -314249081#2 -314249081#1 -314249081#0 -38571673 156257930#0 156257930#1 314249083#0 314249083#1 -314249083#1"/>
    </vehicle>
    <vehicle id="48" depart="48.00">
        <route edges="8792581#5 8792581#6 -156257924#0 -8792350#5 -8792350#4 -8792350#3 -8792350#2 -8792350#1 -8792350#0 156257918#0 156257918#1 156257918#2"/>
    </vehicle>
    <vehicle id="49" depart="49.00">
        <route edges="8792278#12 -8792278#12 -8792278#11 -8792278#10 -8792278#9 -8792278#8 -8792278#7 -8792278#6 -8792278#5 -8792278#4 -8792278#3 -8792278#2 -8792278#1 -8792278#0 10063457 370351014#0 370351014#1 370351014#2 370351014#3 29045633#0 29045633#1 366322366#0 366322366#1 366322361 366322363#0 366322363#1 366322364 29045632 366322365 -156257931#1 -156257931#0 -366322368#16 -366322368#15 -366322368#14 -366322368#13 -366322368#12 -366322368#11 -366322368#10 -366322368#9 -366322368#8 -366322368#7 -366322368#6 -366322368#5 -366322368#4 -366322368#3 -366322368#2 -366322368#1 -366322368#0 -135798587#2 -135798587#1 -135798587#0 -934770633 -366322367 -934770634 -156257936#6 -156257936#5 -156257936#4 -156257936#3 27268234#0 27268234#1 27268234#2 27268234#3 -27202776#2 27502981"/>
    </vehicle>
</routes>
