<?xml version="1.0" encoding="UTF-8"?>

<!-- generated on 2022-12-19 13:18:57 by Eclipse SUMO netconvert Version 1.15.0
<configuration xmlns:xsi="http://www.w3.org/2001/XMLSchema-instance" xsi:noNamespaceSchemaLocation="http://sumo.dlr.de/xsd/netconvertConfiguration.xsd">

    <input>
        <osm-files value="map.osm"/>
    </input>

    <output>
        <output-file value="sample_test.net.xml"/>
    </output>

    <projection>
        <proj.utm value="true"/>
    </projection>

</configuration>
-->

<net version="1.9" junctionCornerDetail="5" limitTurnSpeed="5.50" xmlns:xsi="http://www.w3.org/2001/XMLSchema-instance" xsi:noNamespaceSchemaLocation="http://sumo.dlr.de/xsd/net_file.xsd">

    <location netOffset="-676350.97,-5775186.23" convBoundary="0.00,0.00,2201.55,1629.85" origBoundary="11.574976,52.098591,11.607681,52.113018" projParameter="+proj=utm +zone=32 +ellps=WGS84 +datum=WGS84 +units=m +no_defs"/>

    <type id="highway.bridleway" priority="1" numLanes="1" speed="2.78" allow="pedestrian" oneway="1" width="2.00"/>
    <type id="highway.bus_guideway" priority="1" numLanes="1" speed="27.78" allow="bus" oneway="1"/>
    <type id="highway.cycleway" priority="1" numLanes="1" speed="5.56" allow="bicycle" oneway="0" width="1.00"/>
    <type id="highway.footway" priority="1" numLanes="1" speed="2.78" allow="pedestrian" oneway="1" width="2.00"/>
    <type id="highway.ford" priority="1" numLanes="1" speed="2.78" allow="army" oneway="0"/>
    <type id="highway.living_street" priority="2" numLanes="1" speed="2.78" disallow="tram rail_urban rail rail_electric rail_fast ship" oneway="0"/>
    <type id="highway.motorway" priority="14" numLanes="2" speed="39.44" allow="private emergency authority army vip passenger hov taxi bus coach delivery truck trailer motorcycle evehicle custom1 custom2" oneway="1"/>
    <type id="highway.motorway_link" priority="9" numLanes="1" speed="22.22" allow="private emergency authority army vip passenger hov taxi bus coach delivery truck trailer motorcycle evehicle custom1 custom2" oneway="1"/>
    <type id="highway.path" priority="1" numLanes="1" speed="5.56" allow="pedestrian bicycle" oneway="0" width="2.00"/>
    <type id="highway.pedestrian" priority="1" numLanes="1" speed="2.78" allow="pedestrian" oneway="1" width="2.00"/>
    <type id="highway.primary" priority="12" numLanes="2" speed="27.78" disallow="tram rail_urban rail rail_electric rail_fast ship" oneway="0"/>
    <type id="highway.primary_link" priority="7" numLanes="1" speed="22.22" disallow="tram rail_urban rail rail_electric rail_fast ship" oneway="0"/>
    <type id="highway.raceway" priority="15" numLanes="2" speed="83.33" allow="vip" oneway="0"/>
    <type id="highway.residential" priority="3" numLanes="1" speed="13.89" disallow="tram rail_urban rail rail_electric rail_fast ship" oneway="0"/>
    <type id="highway.secondary" priority="11" numLanes="1" speed="27.78" disallow="tram rail_urban rail rail_electric rail_fast ship" oneway="0"/>
    <type id="highway.secondary_link" priority="6" numLanes="1" speed="22.22" disallow="tram rail_urban rail rail_electric rail_fast ship" oneway="0"/>
    <type id="highway.service" priority="1" numLanes="1" speed="5.56" allow="pedestrian delivery bicycle" oneway="0"/>
    <type id="highway.stairs" priority="1" numLanes="1" speed="1.39" allow="pedestrian" oneway="1" width="2.00"/>
    <type id="highway.step" priority="1" numLanes="1" speed="1.39" allow="pedestrian" oneway="1" width="2.00"/>
    <type id="highway.steps" priority="1" numLanes="1" speed="1.39" allow="pedestrian" oneway="1" width="2.00"/>
    <type id="highway.tertiary" priority="10" numLanes="1" speed="22.22" disallow="tram rail_urban rail rail_electric rail_fast ship" oneway="0"/>
    <type id="highway.tertiary_link" priority="5" numLanes="1" speed="22.22" disallow="tram rail_urban rail rail_electric rail_fast ship" oneway="0"/>
    <type id="highway.track" priority="1" numLanes="1" speed="5.56" allow="pedestrian motorcycle moped bicycle" oneway="0"/>
    <type id="highway.trunk" priority="13" numLanes="2" speed="27.78" disallow="pedestrian bicycle tram rail_urban rail rail_electric rail_fast ship" oneway="0"/>
    <type id="highway.trunk_link" priority="8" numLanes="1" speed="22.22" disallow="pedestrian bicycle tram rail_urban rail rail_electric rail_fast ship" oneway="0"/>
    <type id="highway.unclassified" priority="4" numLanes="1" speed="13.89" disallow="tram rail_urban rail rail_electric rail_fast ship" oneway="0"/>
    <type id="highway.unsurfaced" priority="1" numLanes="1" speed="8.33" disallow="tram rail_urban rail rail_electric rail_fast ship" oneway="0"/>
    <type id="railway.highspeed" priority="21" numLanes="1" speed="69.44" allow="rail_fast" oneway="1"/>
    <type id="railway.light_rail" priority="19" numLanes="1" speed="27.78" allow="rail_urban" oneway="1"/>
    <type id="railway.preserved" priority="16" numLanes="1" speed="27.78" allow="rail" oneway="1"/>
    <type id="railway.rail" priority="20" numLanes="1" speed="44.44" allow="rail" oneway="1"/>
    <type id="railway.subway" priority="18" numLanes="1" speed="27.78" allow="rail_urban" oneway="1"/>
    <type id="railway.tram" priority="17" numLanes="1" speed="13.89" allow="tram" oneway="1"/>

    <edge id=":10008820762_0" function="internal">
        <lane id=":10008820762_0_0" index="0" allow="pedestrian delivery bicycle" speed="3.65" length="4.67" shape="546.62,852.70 545.35,852.02 544.88,851.26 545.20,850.42 546.32,849.51"/>
    </edge>
    <edge id=":10008820763_0" function="internal">
        <lane id=":10008820763_0_0" index="0" allow="pedestrian delivery bicycle" speed="5.34" length="5.10" shape="569.99,807.33 569.48,806.04 568.69,805.17 567.62,804.70 566.26,804.63"/>
    </edge>
    <edge id=":10008820763_1" function="internal">
        <lane id=":10008820763_1_0" index="0" disallow="tram rail_urban rail rail_electric rail_fast ship" speed="8.33" length="9.41" shape="569.99,807.33 569.40,804.60 569.16,802.71 569.00,800.79 568.69,798.02"/>
    </edge>
    <edge id=":10008820763_2" function="internal">
        <lane id=":10008820763_2_0" index="0" disallow="tram rail_urban rail rail_electric rail_fast ship" speed="8.33" length="9.41" shape="571.86,797.59 572.17,800.37 572.34,802.28 572.59,804.17 573.18,806.90"/>
    </edge>
    <edge id=":10008820763_3" function="internal">
        <lane id=":10008820763_3_0" index="0" allow="pedestrian delivery bicycle" speed="6.83" length="3.45" shape="571.86,797.59 571.83,800.44 571.59,800.99"/>
    </edge>
    <edge id=":10008820763_7" function="internal">
        <lane id=":10008820763_7_0" index="0" allow="pedestrian delivery bicycle" speed="6.83" length="6.91" shape="571.59,800.99 570.89,802.57 569.03,803.97 566.26,804.63"/>
    </edge>
    <edge id=":10008820763_4" function="internal">
        <lane id=":10008820763_4_0" index="0" allow="pedestrian delivery bicycle" speed="5.00" length="5.05" shape="565.96,801.45 567.31,801.12 568.22,800.44 568.68,799.41 568.69,798.02"/>
    </edge>
    <edge id=":10008820763_5" function="internal">
        <lane id=":10008820763_5_0" index="0" allow="pedestrian delivery bicycle" speed="6.95" length="10.02" shape="565.96,801.45 568.57,801.59 570.64,802.54 572.18,804.31 573.18,806.90"/>
    </edge>
    <edge id=":10008820763_6" function="internal">
        <lane id=":10008820763_6_0" index="0" allow="pedestrian delivery bicycle" speed="3.65" length="4.67" shape="565.96,801.45 567.23,802.13 567.70,802.89 567.38,803.73 566.26,804.63"/>
    </edge>
    <edge id=":10008820764_0" function="internal">
        <lane id=":10008820764_0_0" index="0" allow="pedestrian delivery bicycle" speed="3.65" length="4.67" shape="526.63,808.37 525.36,807.68 524.89,806.92 525.21,806.09 526.33,805.18"/>
    </edge>
    <edge id=":10008820765_0" function="internal">
        <lane id=":10008820765_0_0" index="0" allow="pedestrian delivery bicycle" speed="3.65" length="4.67" shape="480.46,812.13 481.73,812.82 482.20,813.58 481.88,814.41 480.76,815.32"/>
    </edge>
    <edge id=":10008820766_0" function="internal">
        <lane id=":10008820766_0_0" index="0" disallow="tram rail_urban rail rail_electric rail_fast ship" speed="8.33" length="9.40" shape="449.59,821.34 448.78,811.97"/>
    </edge>
    <edge id=":10008820766_1" function="internal">
        <lane id=":10008820766_1_0" index="0" allow="pedestrian delivery bicycle" speed="6.88" length="3.25" shape="449.59,821.34 449.75,818.57 449.96,818.14"/>
    </edge>
    <edge id=":10008820766_7" function="internal">
        <lane id=":10008820766_7_0" index="0" allow="pedestrian delivery bicycle" speed="6.88" length="6.91" shape="449.96,818.14 450.76,816.51 452.62,815.15 455.33,814.50"/>
    </edge>
    <edge id=":10008820766_2" function="internal">
        <lane id=":10008820766_2_0" index="0" allow="pedestrian delivery bicycle" speed="5.06" length="5.03" shape="455.63,817.69 454.28,818.01 453.36,818.68 452.86,819.69 452.78,821.06"/>
    </edge>
    <edge id=":10008820766_3" function="internal">
        <lane id=":10008820766_3_0" index="0" allow="pedestrian delivery bicycle" speed="6.86" length="10.19" shape="455.63,817.69 452.84,817.55 450.77,816.56 449.41,814.70 448.78,811.97"/>
    </edge>
    <edge id=":10008820766_4" function="internal">
        <lane id=":10008820766_4_0" index="0" allow="pedestrian delivery bicycle" speed="3.65" length="4.67" shape="455.63,817.69 454.36,817.00 453.89,816.25 454.21,815.41 455.33,814.50"/>
    </edge>
    <edge id=":10008820766_5" function="internal">
        <lane id=":10008820766_5_0" index="0" allow="pedestrian delivery bicycle" speed="5.03" length="5.01" shape="451.96,811.69 452.28,813.03 452.94,813.95 453.96,814.44 455.33,814.50"/>
    </edge>
    <edge id=":10008820766_6" function="internal">
        <lane id=":10008820766_6_0" index="0" disallow="tram rail_urban rail rail_electric rail_fast ship" speed="8.33" length="9.40" shape="451.96,811.69 452.78,821.06"/>
    </edge>
    <edge id=":10008820767_0" function="internal">
        <lane id=":10008820767_0_0" index="0" disallow="tram rail_urban rail rail_electric rail_fast ship" speed="8.33" length="9.40" shape="453.86,870.30 453.04,860.93"/>
    </edge>
    <edge id=":10008820767_1" function="internal">
        <lane id=":10008820767_1_0" index="0" allow="pedestrian delivery bicycle" speed="6.88" length="3.25" shape="453.86,870.30 454.01,867.53 454.22,867.10"/>
    </edge>
    <edge id=":10008820767_7" function="internal">
        <lane id=":10008820767_7_0" index="0" allow="pedestrian delivery bicycle" speed="6.88" length="6.91" shape="454.22,867.10 455.02,865.47 456.88,864.11 459.60,863.46"/>
    </edge>
    <edge id=":10008820767_2" function="internal">
        <lane id=":10008820767_2_0" index="0" allow="pedestrian delivery bicycle" speed="5.06" length="5.03" shape="459.90,866.65 458.55,866.97 457.62,867.64 457.12,868.66 457.05,870.02"/>
    </edge>
    <edge id=":10008820767_3" function="internal">
        <lane id=":10008820767_3_0" index="0" allow="pedestrian delivery bicycle" speed="6.86" length="10.20" shape="459.90,866.65 457.10,866.52 455.03,865.52 453.68,863.66 453.04,860.93"/>
    </edge>
    <edge id=":10008820767_4" function="internal">
        <lane id=":10008820767_4_0" index="0" allow="pedestrian delivery bicycle" speed="3.65" length="4.67" shape="459.90,866.65 458.63,865.97 458.15,865.21 458.48,864.37 459.60,863.46"/>
    </edge>
    <edge id=":10008820767_5" function="internal">
        <lane id=":10008820767_5_0" index="0" allow="pedestrian delivery bicycle" speed="5.03" length="5.01" shape="456.23,860.66 456.54,861.99 457.21,862.91 458.22,863.40 459.60,863.46"/>
    </edge>
    <edge id=":10008820767_6" function="internal">
        <lane id=":10008820767_6_0" index="0" disallow="tram rail_urban rail rail_electric rail_fast ship" speed="8.33" length="9.40" shape="456.23,860.66 457.05,870.02"/>
    </edge>
    <edge id=":10008820768_0" function="internal">
        <lane id=":10008820768_0_0" index="0" allow="pedestrian delivery bicycle" speed="3.65" length="4.67" shape="503.11,859.37 504.38,860.05 504.85,860.81 504.53,861.64 503.41,862.55"/>
    </edge>
    <edge id=":10008820769_0" function="internal">
        <lane id=":10008820769_0_0" index="0" allow="pedestrian delivery bicycle" speed="4.98" length="5.06" shape="584.06,846.84 583.33,845.65 582.40,845.00 581.27,844.89 579.94,845.33"/>
    </edge>
    <edge id=":10008820769_1" function="internal">
        <lane id=":10008820769_1_0" index="0" disallow="tram rail_urban rail rail_electric rail_fast ship" speed="8.33" length="9.41" shape="584.06,846.84 580.34,838.20"/>
    </edge>
    <edge id=":10008820769_2" function="internal">
        <lane id=":10008820769_2_0" index="0" disallow="tram rail_urban rail rail_electric rail_fast ship" speed="8.33" length="9.41" shape="583.28,836.93 587.00,845.58"/>
    </edge>
    <edge id=":10008820769_3" function="internal">
        <lane id=":10008820769_3_0" index="0" allow="pedestrian delivery bicycle" speed="6.95" length="3.16" shape="583.28,836.93 583.96,839.54 583.90,840.00"/>
    </edge>
    <edge id=":10008820769_7" function="internal">
        <lane id=":10008820769_7_0" index="0" allow="pedestrian delivery bicycle" speed="6.95" length="7.02" shape="583.90,840.00 583.64,841.81 582.30,843.74 579.94,845.33"/>
    </edge>
    <edge id=":10008820769_4" function="internal">
        <lane id=":10008820769_4_0" index="0" allow="pedestrian delivery bicycle" speed="5.22" length="5.22" shape="578.52,842.46 579.76,841.64 580.48,840.65 580.67,839.51 580.34,838.20"/>
    </edge>
    <edge id=":10008820769_5" function="internal">
        <lane id=":10008820769_5_0" index="0" allow="pedestrian delivery bicycle" speed="6.82" length="10.43" shape="578.52,842.46 581.25,841.56 583.58,841.78 585.49,843.12 587.00,845.58"/>
    </edge>
    <edge id=":10008820769_6" function="internal">
        <lane id=":10008820769_6_0" index="0" allow="pedestrian delivery bicycle" speed="3.65" length="4.67" shape="578.52,842.46 579.95,842.65 580.66,843.19 580.66,844.08 579.94,845.33"/>
    </edge>
    <edge id=":10008896749_0" function="internal">
        <lane id=":10008896749_0_0" index="0" allow="pedestrian delivery bicycle" speed="5.56" length="5.94" shape="1307.57,1037.65 1308.55,1035.98 1309.03,1034.51 1309.01,1033.24 1308.48,1032.18"/>
    </edge>
    <edge id=":10008896749_1" function="internal">
        <lane id=":10008896749_1_0" index="0" allow="pedestrian bicycle" speed="5.56" length="9.19" width="2.00" shape="1307.57,1037.65 1309.21,1035.68 1311.02,1034.27 1313.00,1033.41 1315.15,1033.10"/>
    </edge>
    <edge id=":10008896749_2" function="internal">
        <lane id=":10008896749_2_0" index="0" allow="pedestrian delivery bicycle" speed="3.93" length="5.78" shape="1307.57,1037.65 1308.52,1036.15 1309.50,1035.63 1310.50,1036.11 1311.52,1037.57"/>
    </edge>
    <edge id=":10008896749_3" function="internal">
        <lane id=":10008896749_3_0" index="0" allow="pedestrian bicycle" speed="5.56" length="4.58" width="2.00" shape="1315.18,1035.10 1314.22,1035.27 1313.28,1035.73 1312.39,1036.50 1311.52,1037.57"/>
    </edge>
    <edge id=":10008896749_4" function="internal">
        <lane id=":10008896749_4_0" index="0" allow="pedestrian bicycle" speed="5.56" length="7.57" width="2.00" shape="1315.18,1035.10 1313.16,1034.94 1311.36,1034.40 1309.81,1033.48 1308.48,1032.18"/>
    </edge>
    <edge id=":10008896749_5" function="internal">
        <lane id=":10008896749_5_0" index="0" allow="pedestrian bicycle" speed="2.89" length="2.92" width="2.00" shape="1315.18,1035.10 1314.42,1034.61 1314.17,1034.12 1314.41,1033.61 1315.15,1033.10"/>
    </edge>
    <edge id=":10008896749_6" function="internal">
        <lane id=":10008896749_6_0" index="0" allow="pedestrian bicycle" speed="5.01" length="4.61" width="2.00" shape="1311.60,1030.95 1311.90,1031.91 1312.59,1032.59 1313.68,1032.98 1315.15,1033.10"/>
    </edge>
    <edge id=":10008896749_7" function="internal">
        <lane id=":10008896749_7_0" index="0" allow="pedestrian delivery bicycle" speed="5.56" length="6.92" shape="1311.60,1030.95 1311.99,1032.99 1312.39,1034.47 1312.38,1035.85 1311.52,1037.57"/>
    </edge>
    <edge id=":10008896749_8" function="internal">
        <lane id=":10008896749_8_0" index="0" allow="pedestrian delivery bicycle" speed="4.02" length="4.90" shape="1311.60,1030.95 1311.28,1032.42 1310.66,1033.12 1309.72,1033.04 1308.48,1032.18"/>
    </edge>
    <edge id=":10008896750_0" function="internal">
        <lane id=":10008896750_0_0" index="0" allow="pedestrian delivery bicycle" speed="5.56" length="5.87" shape="1308.35,1032.03 1307.32,1030.62 1306.64,1029.59 1305.81,1028.74 1304.36,1027.85"/>
    </edge>
    <edge id=":10008896750_1" function="internal">
        <lane id=":10008896750_1_0" index="0" allow="pedestrian bicycle" speed="5.56" length="7.86" width="2.00" shape="1308.35,1032.03 1308.03,1030.99 1308.36,1029.47 1309.35,1027.47 1311.00,1024.99"/>
    </edge>
    <edge id=":10008896750_2" function="internal">
        <lane id=":10008896750_2_0" index="0" allow="pedestrian delivery bicycle" speed="4.06" length="5.03" shape="1308.35,1032.03 1308.72,1030.52 1309.38,1029.82 1310.33,1029.93 1311.59,1030.84"/>
    </edge>
    <edge id=":10008896750_3" function="internal">
        <lane id=":10008896750_3_0" index="0" allow="pedestrian bicycle" speed="5.56" length="4.98" width="2.00" shape="1312.62,1026.16 1311.83,1027.37 1311.49,1028.33 1311.45,1029.38 1311.59,1030.84"/>
    </edge>
    <edge id=":10008896750_4" function="internal">
        <lane id=":10008896750_4_0" index="0" allow="pedestrian bicycle" speed="5.56" length="9.32" width="2.00" shape="1312.62,1026.16 1310.93,1027.88 1308.99,1028.74 1306.80,1028.73 1304.36,1027.85"/>
    </edge>
    <edge id=":10008896750_5" function="internal">
        <lane id=":10008896750_5_0" index="0" allow="pedestrian bicycle" speed="2.89" length="2.92" width="2.00" shape="1312.62,1026.16 1311.77,1026.47 1311.22,1026.38 1310.96,1025.89 1311.00,1024.99"/>
    </edge>
    <edge id=":10008896750_6" function="internal">
        <lane id=":10008896750_6_0" index="0" allow="pedestrian bicycle" speed="5.07" length="4.46" width="2.00" shape="1307.00,1025.61 1308.22,1026.07 1309.29,1026.11 1310.22,1025.75 1311.00,1024.99"/>
    </edge>
    <edge id=":10008896750_7" function="internal">
        <lane id=":10008896750_7_0" index="0" allow="pedestrian delivery bicycle" speed="5.56" length="7.24" shape="1307.00,1025.61 1308.90,1026.76 1310.29,1028.01 1311.19,1029.37 1311.59,1030.84"/>
    </edge>
    <edge id=":10008896750_8" function="internal">
        <lane id=":10008896750_8_0" index="0" allow="pedestrian delivery bicycle" speed="3.75" length="5.07" shape="1307.00,1025.61 1307.18,1027.17 1306.80,1028.06 1305.86,1028.29 1304.36,1027.85"/>
    </edge>
    <edge id=":10008896751_0" function="internal">
        <lane id=":10008896751_0_0" index="0" allow="pedestrian bicycle" speed="2.89" length="2.92" width="2.00" shape="1313.27,1021.85 1314.12,1021.53 1314.67,1021.62 1314.93,1022.12 1314.89,1023.02"/>
    </edge>
    <edge id=":10008896752_0" function="internal">
        <lane id=":10008896752_0_0" index="0" allow="pedestrian bicycle" speed="4.83" length="4.54" width="2.00" shape="1277.35,1001.83 1276.24,1001.99 1275.44,1002.54 1274.95,1003.50 1274.76,1004.85"/>
    </edge>
    <edge id=":10008896752_1" function="internal">
        <lane id=":10008896752_1_0" index="0" allow="pedestrian bus delivery bicycle" speed="5.56" length="7.00" shape="1277.35,1001.83 1270.35,1001.59"/>
    </edge>
    <edge id=":10008896752_2" function="internal">
        <lane id=":10008896752_2_0" index="0" allow="pedestrian bus delivery bicycle" speed="3.65" length="4.67" shape="1277.35,1001.83 1276.18,1000.99 1275.81,1000.17 1276.24,999.39 1277.46,998.63"/>
    </edge>
    <edge id=":10008896752_3" function="internal">
        <lane id=":10008896752_3_0" index="0" allow="pedestrian bus delivery bicycle" speed="5.56" length="7.01" shape="1270.46,998.40 1277.46,998.63"/>
    </edge>
    <edge id=":10008896752_4" function="internal">
        <lane id=":10008896752_4_0" index="0" allow="pedestrian bicycle" speed="5.56" length="8.76" width="2.00" shape="1270.46,998.40 1272.40,998.86 1273.76,1000.08 1274.55,1002.08 1274.76,1004.85"/>
    </edge>
    <edge id=":10008896752_5" function="internal">
        <lane id=":10008896752_5_0" index="0" allow="pedestrian bus delivery bicycle" speed="3.65" length="4.67" shape="1270.46,998.40 1271.63,999.24 1272.00,1000.05 1271.58,1000.83 1270.35,1001.59"/>
    </edge>
    <edge id=":10008896752_6" function="internal">
        <lane id=":10008896752_6_0" index="0" allow="pedestrian bicycle" speed="4.69" length="4.55" width="2.00" shape="1272.76,1004.80 1272.64,1003.43 1272.19,1002.44 1271.43,1001.83 1270.35,1001.59"/>
    </edge>
    <edge id=":10008896752_7" function="internal">
        <lane id=":10008896752_7_0" index="0" allow="pedestrian bicycle" speed="5.56" length="8.80" width="2.00" shape="1272.76,1004.80 1273.11,1002.05 1274.01,1000.10 1275.46,998.96 1277.46,998.63"/>
    </edge>
    <edge id=":10008896752_8" function="internal">
        <lane id=":10008896752_8_0" index="0" allow="pedestrian bicycle" speed="2.89" length="2.92" width="2.00" shape="1272.76,1004.80 1273.28,1004.07 1273.78,1003.83 1274.28,1004.09 1274.76,1004.85"/>
    </edge>
    <edge id=":10008896753_0" function="internal">
        <lane id=":10008896753_0_0" index="0" allow="pedestrian delivery bicycle" speed="5.56" length="3.62" shape="1276.72,1021.15 1273.10,1020.95"/>
    </edge>
    <edge id=":10008896753_1" function="internal">
        <lane id=":10008896753_1_0" index="0" allow="pedestrian bicycle" speed="5.56" length="8.75" width="2.00" shape="1276.72,1021.15 1274.82,1020.65 1273.49,1019.39 1272.72,1017.37 1272.52,1014.58"/>
    </edge>
    <edge id=":10008896753_2" function="internal">
        <lane id=":10008896753_2_0" index="0" allow="pedestrian delivery bicycle" speed="3.65" length="4.67" shape="1276.72,1021.15 1275.56,1020.28 1275.20,1019.46 1275.65,1018.69 1276.89,1017.95"/>
    </edge>
    <edge id=":10008896753_3" function="internal">
        <lane id=":10008896753_3_0" index="0" allow="pedestrian bicycle" speed="4.75" length="4.60" width="2.00" shape="1274.51,1014.63 1274.63,1016.04 1275.07,1017.06 1275.82,1017.69 1276.89,1017.95"/>
    </edge>
    <edge id=":10008896753_4" function="internal">
        <lane id=":10008896753_4_0" index="0" allow="pedestrian bicycle" speed="5.51" length="6.72" width="2.00" shape="1274.51,1014.63 1274.37,1017.42 1274.08,1019.41 1273.66,1020.58 1273.10,1020.95"/>
    </edge>
    <edge id=":10008896753_5" function="internal">
        <lane id=":10008896753_5_0" index="0" allow="pedestrian bicycle" speed="2.89" length="2.92" width="2.00" shape="1274.51,1014.63 1274.00,1015.37 1273.49,1015.61 1273.00,1015.35 1272.52,1014.58"/>
    </edge>
    <edge id=":10008896753_6" function="internal">
        <lane id=":10008896753_6_0" index="0" allow="pedestrian bicycle" speed="4.22" length="3.26" width="2.00" shape="1273.27,1017.76 1272.52,1014.58"/>
    </edge>
    <edge id=":10008896753_7" function="internal">
        <lane id=":10008896753_7_0" index="0" allow="pedestrian delivery bicycle" speed="5.56" length="3.62" shape="1273.27,1017.76 1276.89,1017.95"/>
    </edge>
    <edge id=":10008896753_8" function="internal">
        <lane id=":10008896753_8_0" index="0" allow="pedestrian delivery bicycle" speed="3.65" length="4.67" shape="1273.27,1017.76 1274.43,1018.62 1274.78,1019.44 1274.34,1020.22 1273.10,1020.95"/>
    </edge>
    <edge id=":10008896754_0" function="internal">
        <lane id=":10008896754_0_0" index="0" allow="pedestrian delivery bicycle" speed="3.65" length="4.67" shape="1157.37,1014.25 1156.24,1013.35 1155.90,1012.53 1156.36,1011.76 1157.62,1011.06"/>
    </edge>
    <edge id=":10008896755_0" function="internal">
        <lane id=":10008896755_0_0" index="0" allow="pedestrian delivery bicycle" speed="3.65" length="4.67" shape="1198.50,1041.33 1197.65,1042.50 1196.84,1042.87 1196.05,1042.44 1195.30,1041.21"/>
    </edge>
    <edge id=":10008896756_0" function="internal">
        <lane id=":10008896756_0_0" index="0" allow="pedestrian delivery bicycle" speed="5.03" length="5.02" shape="1202.59,1017.14 1201.21,1017.26 1200.22,1017.80 1199.59,1018.74 1199.34,1020.09"/>
    </edge>
    <edge id=":10008896756_1" function="internal">
        <lane id=":10008896756_1_0" index="0" allow="pedestrian delivery bicycle" speed="5.56" length="9.40" shape="1202.59,1017.14 1193.20,1016.64"/>
    </edge>
    <edge id=":10008896756_2" function="internal">
        <lane id=":10008896756_2_0" index="0" allow="pedestrian delivery bicycle" speed="3.65" length="4.67" shape="1202.59,1017.14 1201.43,1016.28 1201.07,1015.46 1201.52,1014.68 1202.76,1013.95"/>
    </edge>
    <edge id=":10008896756_3" function="internal">
        <lane id=":10008896756_3_0" index="0" allow="pedestrian delivery bicycle" speed="5.56" length="9.40" shape="1193.37,1013.44 1202.76,1013.95"/>
    </edge>
    <edge id=":10008896756_4" function="internal">
        <lane id=":10008896756_4_0" index="0" allow="pedestrian delivery bicycle" speed="5.56" length="10.17" shape="1193.37,1013.44 1196.08,1013.98 1197.98,1015.27 1199.06,1017.31 1199.34,1020.09"/>
    </edge>
    <edge id=":10008896756_5" function="internal">
        <lane id=":10008896756_5_0" index="0" allow="pedestrian delivery bicycle" speed="3.65" length="4.67" shape="1193.37,1013.44 1194.52,1014.30 1194.88,1015.12 1194.44,1015.90 1193.20,1016.64"/>
    </edge>
    <edge id=":10008896756_6" function="internal">
        <lane id=":10008896756_6_0" index="0" allow="pedestrian delivery bicycle" speed="5.09" length="5.06" shape="1196.15,1019.97 1196.01,1018.57 1195.47,1017.55 1194.53,1016.91 1193.20,1016.64"/>
    </edge>
    <edge id=":10008896756_7" function="internal">
        <lane id=":10008896756_7_0" index="0" allow="pedestrian delivery bicycle" speed="5.56" length="10.23" shape="1196.15,1019.97 1196.65,1017.20 1197.93,1015.28 1199.96,1014.19 1202.76,1013.95"/>
    </edge>
    <edge id=":10008896756_8" function="internal">
        <lane id=":10008896756_8_0" index="0" allow="pedestrian delivery bicycle" speed="3.65" length="4.67" shape="1196.15,1019.97 1196.99,1018.80 1197.81,1018.43 1198.59,1018.86 1199.34,1020.09"/>
    </edge>
    <edge id=":10008896761_0" function="internal">
        <lane id=":10008896761_0_0" index="0" allow="pedestrian delivery bicycle" speed="5.56" length="14.27" shape="1273.20,1027.44 1270.27,1025.16 1267.47,1022.91 1264.51,1021.13 1261.09,1020.31"/>
    </edge>
    <edge id=":10008896761_1" function="internal">
        <lane id=":10008896761_1_0" index="0" allow="pedestrian delivery bicycle" speed="5.56" length="19.14" shape="1273.20,1027.44 1267.50,1022.90 1265.58,1019.76 1267.44,1018.05 1273.07,1017.75"/>
    </edge>
    <edge id=":10008896761_2" function="internal">
        <lane id=":10008896761_2_0" index="0" allow="pedestrian delivery bicycle" speed="3.65" length="4.67" shape="1273.20,1027.44 1272.67,1026.10 1272.79,1025.22 1273.58,1024.79 1275.02,1024.81"/>
    </edge>
    <edge id=":10008896761_3" function="internal">
        <lane id=":10008896761_3_0" index="0" allow="pedestrian delivery bicycle" speed="4.47" length="6.60" shape="1272.90,1020.94 1271.62,1021.11 1271.55,1021.81 1272.68,1023.04 1275.02,1024.81"/>
    </edge>
    <edge id=":10008896761_4" function="internal">
        <lane id=":10008896761_4_0" index="0" allow="pedestrian delivery bicycle" speed="5.56" length="11.83" shape="1272.90,1020.94 1261.09,1020.31"/>
    </edge>
    <edge id=":10008896761_5" function="internal">
        <lane id=":10008896761_5_0" index="0" allow="pedestrian delivery bicycle" speed="3.65" length="4.67" shape="1272.90,1020.94 1271.75,1020.08 1271.39,1019.26 1271.83,1018.48 1273.07,1017.75"/>
    </edge>
    <edge id=":10008896761_6" function="internal">
        <lane id=":10008896761_6_0" index="0" allow="pedestrian delivery bicycle" speed="5.56" length="11.83" shape="1261.26,1017.11 1273.07,1017.75"/>
    </edge>
    <edge id=":10008896761_7" function="internal">
        <lane id=":10008896761_7_0" index="0" allow="pedestrian delivery bicycle" speed="5.56" length="15.96" shape="1261.26,1017.11 1264.94,1018.03 1268.47,1019.99 1271.84,1022.44 1275.02,1024.81"/>
    </edge>
    <edge id=":10008896761_8" function="internal">
        <lane id=":10008896761_8_0" index="0" allow="pedestrian delivery bicycle" speed="3.65" length="4.67" shape="1261.26,1017.11 1262.42,1017.97 1262.77,1018.79 1262.33,1019.57 1261.09,1020.31"/>
    </edge>
    <edge id=":10008896762_0" function="internal">
        <lane id=":10008896762_0_0" index="0" allow="pedestrian delivery bicycle" speed="5.56" length="9.40" shape="1307.41,1043.48 1302.04,1051.19"/>
    </edge>
    <edge id=":10008896762_1" function="internal">
        <lane id=":10008896762_1_0" index="0" allow="pedestrian delivery bicycle" speed="5.56" length="10.16" shape="1307.41,1043.48 1305.52,1045.51 1303.42,1046.45 1301.13,1046.30 1298.64,1045.05"/>
    </edge>
    <edge id=":10008896762_2" function="internal">
        <lane id=":10008896762_2_0" index="0" allow="pedestrian delivery bicycle" speed="3.65" length="4.67" shape="1307.41,1043.48 1306.07,1044.01 1305.18,1043.88 1304.76,1043.09 1304.78,1041.65"/>
    </edge>
    <edge id=":10008896762_3" function="internal">
        <lane id=":10008896762_3_0" index="0" allow="pedestrian delivery bicycle" speed="5.05" length="5.01" shape="1300.46,1042.42 1301.69,1043.04 1302.82,1043.11 1303.85,1042.65 1304.78,1041.65"/>
    </edge>
    <edge id=":10008896762_4" function="internal">
        <lane id=":10008896762_4_0" index="0" allow="pedestrian delivery bicycle" speed="5.56" length="10.17" shape="1300.46,1042.42 1302.50,1044.32 1303.45,1046.41 1303.29,1048.70 1302.04,1051.19"/>
    </edge>